transport_bcs

###############
neutral_density
###############
scalar_bcs

###########
ion_density
###########
scalar_bcs

#####################
ion_parallel_velocity
#####################
scalar_bcs

dirichlet
1 2
ConstantCoefficient 1.62319722e+4

###############
ion_temperature
###############
scalar_bcs

####################
electron_temperature
####################
scalar_bcs

###########
coupled_bcs
###########
scalar_bcs
recycling
1 2 0
2
2 4
ConstantCoefficient 1.0
ConstantCoefficient 1.0
